Version 4
SHEET 1 880 680
WIRE 240 -112 -80 -112
WIRE 160 -64 16 -64
WIRE 320 -64 160 -64
WIRE 320 0 320 -64
WIRE -80 16 -80 -112
WIRE 16 16 -80 16
WIRE 288 16 208 16
WIRE 160 32 160 16
WIRE 432 32 352 32
WIRE 240 48 240 -112
WIRE 288 48 240 48
WIRE 16 80 16 16
WIRE 192 80 128 80
WIRE 208 80 208 16
WIRE 208 80 192 80
WIRE -80 96 -80 16
WIRE 320 96 320 64
WIRE 432 96 320 96
WIRE 192 112 192 80
WIRE 208 112 192 112
WIRE 224 112 208 112
WIRE 320 112 320 96
WIRE 320 112 288 112
WIRE 320 128 320 112
WIRE 16 192 16 160
WIRE 128 192 128 160
WIRE 192 192 192 112
WIRE 80 256 80 192
WIRE 208 256 208 112
WIRE 208 256 80 256
WIRE -80 272 -80 176
FLAG -80 272 0
FLAG 320 128 0
FLAG 160 32 0
SYMBOL voltage -80 80 R0
WINDOW 123 0 0 Left 0
WINDOW 39 0 0 Left 0
SYMATTR InstName V1
SYMATTR Value 4.1v
SYMBOL voltage 160 -80 R0
WINDOW 123 0 0 Left 0
WINDOW 39 0 0 Left 0
SYMATTR InstName V2
SYMATTR Value 5v
SYMBOL res 0 -80 R0
SYMATTR InstName R1
SYMATTR Value 10k
SYMBOL res 0 64 R0
SYMATTR InstName R2
SYMATTR Value 6.8k
SYMBOL res 112 64 R0
SYMATTR InstName R3
SYMATTR Value 3.3k
SYMBOL OpAmps\\OP07 320 -32 R0
SYMATTR InstName U1
SYMBOL diode 80 176 R90
WINDOW 0 0 32 VBottom 2
WINDOW 3 32 32 VTop 2
SYMATTR InstName D1
SYMBOL diode 192 176 R90
WINDOW 0 0 32 VBottom 2
WINDOW 3 32 32 VTop 2
SYMATTR InstName D2
SYMBOL diode 288 96 R90
WINDOW 0 0 32 VBottom 2
WINDOW 3 32 32 VTop 2
SYMATTR InstName D3
SYMBOL LED 416 32 R0
SYMATTR InstName D4
TEXT -114 296 Left 2 !.tran 20
